@<TRIPOS>MOLECULE
default_name
   32    31     1     0     0
SMALL
No Charge or Current Charge


@<TRIPOS>ATOM
      1 H1          25.8980    25.2040    24.4650 H          1 ACE       0.112300
      2 CH3         25.9650    26.1970    24.0230 C.3        1 ACE      -0.366200
      3 H2          25.2760    26.8710    24.5300 H          1 ACE       0.112300
      4 H3          25.7210    26.1430    22.9630 H          1 ACE       0.112300
      5 C           27.3760    26.7110    24.1840 C.2        1 ACE       0.597200
      6 O           28.2190    26.0230    24.7450 O.2        1 ACE      -0.567900
      7 N           27.6270    27.9230    23.6960 N.am       2 ALA      -0.415700
      8 H           26.8700    28.4440    23.2790 H          2 ALA       0.271900
      9 CA          28.9190    28.6050    23.7760 C.3        2 ALA       0.033700
     10 HA          29.4140    28.3160    24.7060 H          2 ALA       0.082300
     11 CB          29.7950    28.1540    22.5980 C.3        2 ALA      -0.182500
     12 HB1         29.3210    28.4290    21.6540 H          2 ALA       0.060300
     13 HB2         30.7740    28.6290    22.6590 H          2 ALA       0.060300
     14 HB3         29.9280    27.0710    22.6300 H          2 ALA       0.060300
     15 C           28.7370    30.1340    23.7910 C.2        2 ALA       0.597300
     16 O           27.6960    30.6450    23.3770 O.2        2 ALA      -0.567900
     17 N           29.7570    30.8630    24.2490 N.am       3 ALA      -0.415700
     18 H           30.6040    30.3920    24.5340 H          3 ALA       0.271900
     19 CA          29.7820    32.3250    24.3090 C.3        3 ALA       0.033700
     20 HA          29.2140    32.7230    23.4660 H          3 ALA       0.082300
     21 CB          29.1080    32.7800    25.6120 C.3        3 ALA      -0.182500
     22 HB1         29.6580    32.3910    26.4700 H          3 ALA       0.060300
     23 HB2         29.0910    33.8690    25.6620 H          3 ALA       0.060300
     24 HB3         28.0820    32.4120    25.6460 H          3 ALA       0.060300
     25 C           31.2240    32.8540    24.2020 C.2        3 ALA       0.597300
     26 O           32.1780    32.1130    24.4380 O.2        3 ALA      -0.567900
     27 N           31.3790    34.1390    23.8570 N.am       4 NME      -0.415700
     28 H           30.5500    34.6850    23.6860 H          4 NME       0.271900
     29 CH3         32.6770    34.7980    23.7220 C.3        4 NME      -0.149000
     30 HH31        33.3320    34.1990    23.0860 H          4 NME       0.097600
     31 HH32        32.5560    35.7880    23.2800 H          4 NME       0.097600
     32 HH33        33.1440    34.8970    24.7040 H          4 NME       0.097600
@<TRIPOS>BOND
     1     5     6 2   
     2     5     7 am  
     3     2     3 1   
     4     2     4 1   
     5     2     5 1   
     6     1     2 1   
     7    15    16 2   
     8    15    17 am  
     9    11    12 1   
    10    11    13 1   
    11    11    14 1   
    12     9    10 1   
    13     9    11 1   
    14     9    15 1   
    15     7     8 1   
    16     7     9 1   
    17    25    26 2   
    18    25    27 am  
    19    21    22 1   
    20    21    23 1   
    21    21    24 1   
    22    19    20 1   
    23    19    21 1   
    24    19    25 1   
    25    17    18 1   
    26    17    19 1   
    27    29    30 1   
    28    29    31 1   
    29    29    32 1   
    30    27    28 1   
    31    27    29 1   
@<TRIPOS>SUBSTRUCTURE
     1 ACE         1 TEMP              0 ****  ****    0 ROOT
